# generated using pymatgen
data_CsCu2Cl3
_symmetry_space_group_name_H-M   Cmcm
_cell_length_a   9.73662200
_cell_length_b   12.50647800
_cell_length_c   5.34507700
_cell_angle_alpha   90.00000000
_cell_angle_beta   90.00000000
_cell_angle_gamma   90.00000000
_symmetry_Int_Tables_number   63
_chemical_formula_structural   CsCu2Cl3
_chemical_formula_sum   'Cs4 Cu8 Cl12'
_cell_volume   650.87456339
_cell_formula_units_Z   4
loop_
 _symmetry_equiv_pos_site_id
 _symmetry_equiv_pos_as_xyz
  1  'x, y, z'
  2  '-x, -y, -z'
  3  '-x, -y, z+1/2'
  4  'x, y, -z+1/2'
  5  'x, -y, -z'
  6  '-x, y, z'
  7  '-x, y, -z+1/2'
  8  'x, -y, z+1/2'
  9  'x+1/2, y+1/2, z'
  10  '-x+1/2, -y+1/2, -z'
  11  '-x+1/2, -y+1/2, z+1/2'
  12  'x+1/2, y+1/2, -z+1/2'
  13  'x+1/2, -y+1/2, -z'
  14  '-x+1/2, y+1/2, z'
  15  '-x+1/2, y+1/2, -z+1/2'
  16  'x+1/2, -y+1/2, z+1/2'
loop_
 _atom_site_type_symbol
 _atom_site_label
 _atom_site_symmetry_multiplicity
 _atom_site_fract_x
 _atom_site_fract_y
 _atom_site_fract_z
 _atom_site_occupancy
  Cs  Cs0  4  0.00000000  0.31240900  0.25000000  1
  Cu  Cu1  8  0.16630600  0.00000000  0.00000000  1
  Cl  Cl2  8  0.22029150  0.38099750  0.75000000  1
  Cl  Cl3  4  0.00000000  0.10743000  0.75000000  1
